version 2
1
9
.tran 10m 100m{return}.kicad adjustpaths{return}.save all{return}.probe alli
0
