version 2
1
9
.tran 1m 1{return}.kicad adjustpaths{return}.save all{return}.probe alli
5
1
V(Audio_in)
 
1
V(Audio_out)
 
1
V(CV)
 
1
V(buffered_sig)
 
1
V(first_stage_sig)
 
