* A quad opamp ngspice model
* file name: ada4084_quad.txt
.subckt ADA4084-4 1in- 1in+ vcc+ 2in+ 2in- 2out 3out 3in- 3in+ vcc- 4in+ 4in- nc 4out 1out
.include ada4084.cir
XU1A 1in+ 1in- vcc+ vcc- 1out ADA4084
XU1B 2in+ 2in- vcc+ vcc- 2out ADA4084
XU1C 3in+ 3in- vcc+ vcc- 3out ADA4084
XU1D 4in+ 4in- vcc+ vcc- 4out ADA4084
.ends